CRYSTAL
# Primitive lattice vectors in Angstrom
PRIMVEC
 5.56601660700000 0.00000000000000 0.00000000000000
 0.00000000000000 15.85306796200000 0.00000000000000
 0.00000000000000 0.00000000000000 5.45329924700000
# Cartesian coordinates in Angstrom.
PRIMCOORD
 36 1
Sr     5.50115530600000     1.75354203900000     2.70818459500000
Sr     0.06486130100000    14.09952592300000     2.74511465200000
Sr     2.71823791100000    14.09953089600000     0.01849171500000
Sr     2.84777869600000     1.75353706600000     5.43480753300000
Sr     0.06486130100000     9.68007602000000     2.74511465200000
Sr     5.50115530600000     6.17299194200000     2.70818459500000
Sr     2.84777869600000     6.17299691500000     5.43480753300000
Sr     2.71823791100000     9.68007104700000     0.01849171500000
Co     0.00000000000000     0.00000000000000     0.00000000000000
Co     2.78300830400000     0.00000000000000     2.72664962400000
Co     0.00000000000000     7.92653398100000     0.00000000000000
Co     2.78300830400000     7.92653398100000     2.72664962400000
Co     0.32128610400000     3.96326699100000     5.25379695600000
Co     5.24473058700000    11.88980097200000     0.19950229100000
Co     3.10462345300000    11.88980097200000     2.92625356600000
Co     2.46139315400000     3.96326699100000     2.52704568200000
O     4.18586906200000    15.69920113500000     1.36003648100000
O     1.38014754500000     0.15386682700000     4.09326292400000
O     1.40195427800000     0.15388282500000     1.36573386400000
O     4.16406232900000    15.69918513700000     4.08756522500000
O     1.38014754500000     7.77266715400000     4.09326292400000
O     4.18586906200000     8.08040080800000     1.36003648100000
O     4.16406232900000     8.08041680600000     4.08756522500000
O     1.40195427800000     7.77265115600000     1.36573386400000
O     5.31528158800000     2.26846378400000     0.06191936300000
O     0.25073501900000    13.58460370300000     5.39137992200000
O     2.53217266400000    13.58487048900000     2.66465185100000
O     3.03384394300000     2.26819699800000     2.78864739600000
O     0.25073501900000    10.19499824000000     5.39137992200000
O     5.31528158800000     5.65807019800000     0.06191936300000
O     3.03384394300000     5.65833698300000     2.78864739600000
O     2.53217266400000    10.19473145500000     2.66465185100000
O     0.75019637600000     3.96326699100000     3.39283797500000
O     4.81582031400000    11.88980097200000     2.06046127200000
O     3.53343284300000    11.88980097200000     4.78699012000000
O     2.03258376500000     3.96326699100000     0.66630912700000